LTspice 24.0.12 for Windows
Circuit: * D:\sistemas-de-controle-2\trabalho2\Draft2.asc
Start Time: Sun Oct 26 11:25:09 2025
solver = Normal
Maximum thread count: 4
tnom = 27
temp = 27
method = modified trap
.OP point found by inspection.
Ignoring empty pin current: Ix(u1:1)
Ignoring empty pin current: Ix(u1:2)
Ignoring empty pin current: Ix(u1:1)
Ignoring empty pin current: Ix(u1:2)
Total elapsed time: 0.126 seconds.

